psse_scripts/redes_psse/DORAA_una_carga_un_gen.raw
@!IC, SBASE,REV,XFRRAT,NXFRAT,BASFRQ
0,   100.00, 34,     0,     1, 50.00     / PSS(R)E-34.9    SUN, APR 28 2024  19:54
PREVISIÛN M·X MEDIODÌA INV 2020, TOTAL PAÌS  1862 MW
HISTÛRICO  05JUL2019, H1145, DEMANDA 1730 MW
GENERAL, THRSHZ=0.0001, PQBRAK=0.7, BLOWUP=5.0
GAUSS, ITMX=100, ACCP=1.6, ACCQ=1.6, ACCM=1.0, TOL=0.0001
NEWTON, ITMXN=20, ACCN=1.0, TOLN=0.1, VCTOLQ=0.1, VCTOLV=0.00001, DVLIM=0.99, NDVFCT=0.99
ADJUST, ADJTHR=0.005, ACCTAP=1.0, TAPLIM=0.05, SWVBND=100.0, MXTPSS=99, MXSWIM=10
TYSL, ITMXTY=20, ACCTY=1.0, TOLTY=0.00001
SOLVER, FNSL, ACTAPS=0, AREAIN=0, PHSHFT=0, DCTAPS=1, SWSHNT=1, FLATST=0, VARLIM=0, NONDIV=0
RATING, 1, "RATE1 ", "RATING SET 1                    "
RATING, 2, "RATE2 ", "RATING SET 2                    "
RATING, 3, "RATE3 ", "RATING SET 3                    "
RATING, 4, "RATE4 ", "RATING SET 4                    "
RATING, 5, "RATE5 ", "RATING SET 5                    "
RATING, 6, "RATE6 ", "RATING SET 6                    "
RATING, 7, "RATE7 ", "RATING SET 7                    "
RATING, 8, "RATE8 ", "RATING SET 8                    "
RATING, 9, "RATE9 ", "RATING SET 9                    "
RATING,10, "RATE10", "RATING SET 10                   "
RATING,11, "RATE11", "RATING SET 11                   "
RATING,12, "RATE12", "RATING SET 12                   "
0 / END OF SYSTEM-WIDE DATA, BEGIN BUS DATA
@!   I,'NAME        ', BASKV, IDE,AREA,ZONE,OWNER, VM,        VA,    NVHI,   NVLO,   EVHI,   EVLO
   101,'PES150_B    ', 150.0000,1,  99, 904, 901,0.93443,   1.7484,1.10000,0.90000,1.10000,0.90000
  4000,'SGDE.ARG    ', 500.0000,1,   2,   4,  10,0.90001,   0.0000,1.10000,0.90000,1.10000,0.90000
  4004,'C.ELIA      ', 500.0000,1,   2,   4,  10,0.92980,   0.4916,1.10000,0.90000,1.10000,0.90000
 90000,'SU5500_B    ', 500.0000,2,  99, 901, 901,0.90029,   0.1945,1.10000,0.90000,1.10000,0.90000
 90080,'SJ5500_B    ', 500.0000,1,  99, 901, 901,0.93313,   0.5700,1.10000,0.90000,1.10000,0.90000
 90100,'MA5500_B    ', 500.0000,1,  99, 902, 901,0.94764,   0.4017,1.10000,0.90000,1.10000,0.90000
 90160,'BRU500_B    ', 500.0000,2,  99, 902, 901,0.94688,   0.4620,1.10000,0.90000,1.10000,0.90000
 90180,'CR5_500_B   ', 500.0000,1,  99, 902, 901,0.94968,   0.4868,1.10000,0.90000,1.10000,0.90000
 90200,'MVB500_B    ', 500.0000,1,  99, 902, 901,0.94720,   0.4026,1.10000,0.90000,1.10000,0.90000
 90300,'MI5500_B    ', 500.0000,1,  99, 902, 901,0.94812,   0.4396,1.10000,0.90000,1.10000,0.90000
 90480,'ME5500_B    ', 500.0000,1,  99, 902, 901,0.94444,   2.7792,1.10000,0.90000,1.10000,0.90000
 90500,'PAL500_B    ', 500.0000,2,  99, 902, 901,0.94669,   0.8001,1.10000,0.90000,1.10000,0.90000
 90700,'SC5500_B    ', 500.0000,1,  99, 902, 901,0.95103,   1.3488,1.10000,0.90000,1.10000,0.90000
 92000,'SU5150_B    ', 150.0000,1,  99, 901, 901,0.90034,   1.8523,1.10000,0.90000,1.10000,0.90000
 92020,'YOU150_B    ', 150.0000,1,  99, 906, 901,0.94861,   3.8449,1.10000,0.90000,1.10000,0.90000
 92030,'PAY150_B    ', 150.0000,1,  99, 908, 901,0.93604,   3.3119,1.10000,0.90000,1.10000,0.90000
 92040,'SAL150_B    ', 150.0000,2,  99, 908, 901,0.90410,   1.8595,1.10000,0.90000,1.10000,0.90000
 92050,'FBE150_B    ', 150.0000,1,  99, 909, 901,0.94950,   0.9042,1.10000,0.90000,1.10000,0.90000
 92060,'ARA150_B    ', 150.0000,1,  99, 908, 901,0.91018,   4.7750,1.10000,0.90000,1.10000,0.90000
 92061,'CLFAUX150_B ', 150.0000,1,  99, 908, 901,0.90370,   4.3633,1.10000,0.90000,1.10000,0.90000
 92070,'TGO150_B    ', 150.0000,1,  99, 908, 901,0.92566,   6.2927,1.10000,0.90000,1.10000,0.90000
 92080,'SJA150_B    ', 150.0000,1,  99, 901, 901,0.95519,   0.6640,1.10000,0.90000,1.10000,0.90000
 92090,'ART150_B    ', 150.0000,1,  99, 908, 901,0.94531,   8.6445,1.10000,0.90000,1.10000,0.90000
 92091,'JPT_150B    ', 150.0000,2,  99, 908, 901,0.94287,   8.8706,1.10000,0.90000,1.10000,0.90000
 92100,'MVA150_B    ', 150.0000,1,  99, 903, 901,0.94115,   0.0559,1.10000,0.90000,1.10000,0.90000
 92110,'NOR1501B    ', 150.0000,1,  99, 903, 901,0.94008,  -0.0971,1.10000,0.90000,1.10000,0.90000
 92111,'NOR1502B    ', 150.0000,1,  99, 903, 901,0.94178,  -0.5650,1.10000,0.90000,1.10000,0.90000
 92124,'MVL150B2    ', 150.0000,2,  99, 903, 901,0.93889,  -0.1892,1.10000,0.90000,1.10000,0.90000
 92131,'PRO1501X    ', 150.0000,1,  99, 906, 901,0.94158,   0.9516,1.10000,0.90000,1.10000,0.90000
 92132,'PRO1502X    ', 150.0000,1,  99, 906, 901,0.94158,   0.9516,1.10000,0.90000,1.10000,0.90000
 92141,'MVLMVA_X    ', 150.0000,1,  99, 903, 901,0.94003,  -0.0698,1.10000,0.90000,1.10000,0.90000
 92142,'MVLMVB_X    ', 150.0000,1,  99, 903, 901,0.94109,  -0.0639,1.10000,0.90000,1.10000,0.90000
 92180,'MVM1501X    ', 150.0000,1,  99, 903, 901,0.94237,  -0.4678,1.10000,0.90000,1.10000,0.90000
 92200,'MVB150_B    ', 150.0000,1,  99, 903, 901,0.94295,   0.0467,1.10000,0.90000,1.10000,0.90000
 92210,'MVC150_B    ', 150.0000,1,  99, 903, 901,0.94292,  -0.5944,1.10000,0.90000,1.10000,0.90000
 92220,'MVD1501X    ', 150.0000,1,  99, 903, 901,0.94305,  -0.6572,1.10000,0.90000,1.10000,0.90000
 92230,'MVD1502X    ', 150.0000,1,  99, 903, 901,0.94305,  -0.6572,1.10000,0.90000,1.10000,0.90000
 92240,'MVE1501B    ', 150.0000,2,  99, 903, 901,0.94280,  -0.6939,1.10000,0.90000,1.10000,0.90000
 92270,'MVJ150_B    ', 150.0000,1,  99, 903, 901,0.94276,  -0.7149,1.10000,0.90000,1.10000,0.90000
 92280,'PIE150_B    ', 150.0000,1,  99, 903, 901,0.94298,   0.0462,1.10000,0.90000,1.10000,0.90000
 92300,'MVI150_B    ', 150.0000,1,  99, 903, 901,0.94331,  -0.6567,1.10000,0.90000,1.10000,0.90000
 92310,'MVF150_B    ', 150.0000,1,  99, 903, 901,0.94303,  -0.7002,1.10000,0.90000,1.10000,0.90000
 92320,'MVG150_B    ', 150.0000,1,  99, 903, 901,0.94296,  -0.7100,1.10000,0.90000,1.10000,0.90000
 92330,'MVH1501B    ', 150.0000,1,  99, 903, 901,0.94317,  -0.6784,1.10000,0.90000,1.10000,0.90000
 92340,'MVK150_B    ', 150.0000,1,  99, 903, 901,0.94257,  -0.7910,1.10000,0.90000,1.10000,0.90000
 92350,'MVR1501B    ', 150.0000,1,  99, 903, 901,0.94304,  -0.7090,1.10000,0.90000,1.10000,0.90000
 92360,'MVR1502B    ', 150.0000,1,  99, 903, 901,0.94080,  -0.4233,1.10000,0.90000,1.10000,0.90000
 92380,'SOL150_B    ', 150.0000,1,  99, 903, 901,0.94157,  -0.6293,1.10000,0.90000,1.10000,0.90000
 92400,'RIV150_B    ', 150.0000,2,  99, 907, 901,0.95777,   7.5116,1.10000,0.90000,1.10000,0.90000
 92410,'TAC150_B    ', 150.0000,1,  99, 907, 901,0.96105,   7.9838,1.10000,0.90000,1.10000,0.90000
 92411,'PAM150_B    ', 150.0000,2,  99, 907, 901,0.96210,  11.0080,1.10000,0.90000,1.10000,0.90000
 92412,'TAB150_B    ', 150.0000,1,  99, 907, 901,0.96253,   8.3243,1.10000,0.90000,1.10000,0.90000
 92420,'VAL150_B    ', 150.0000,2,  99, 905, 901,0.97766,   5.9911,1.10000,0.90000,1.10000,0.90000
 92430,'TYT150_B    ', 150.0000,1,  99, 905, 901,0.97616,   5.7687,1.10000,0.90000,1.10000,0.90000
 92440,'EMA150_B    ', 150.0000,1,  99, 905, 901,0.97851,   5.6873,1.10000,0.90000,1.10000,0.90000
 92450,'MEL150_B    ', 150.0000,1,  99, 905, 901,0.96576,   5.6246,1.10000,0.90000,1.10000,0.90000
 92460,'MDI150_X    ', 150.0000,1,  99, 907, 901,0.96178,   7.7789,1.10000,0.90000,1.10000,0.90000
 92470,'STE150_B    ', 150.0000,1,  99, 907, 901,0.96191,   7.7678,1.10000,0.90000,1.10000,0.90000
 92480,'MEB150_B    ', 150.0000,1,  99, 902, 901,0.96439,   5.6341,1.10000,0.90000,1.10000,0.90000
 92481,'MEB150P1    ', 150.0000,1,  99, 905, 901,0.96474,   5.7386,1.10000,0.90000,1.10000,0.90000
 92482,'MEB150P2    ', 150.0000,1,  99, 905, 901,0.96496,   5.6316,1.10000,0.90000,1.10000,0.90000
 92485,'LAD150_B    ', 150.0000,2,  99, 902, 904,0.96178,   6.5715,1.10000,0.90000,1.10000,0.90000
 92490,'ARB150_B    ', 150.0000,2,  99, 905, 901,0.96744,   6.4008,1.10000,0.90000,1.10000,0.90000
 92491,'ARB150P1    ', 150.0000,1,  99, 905, 901,0.96777,   6.3840,1.10000,0.90000,1.10000,0.90000
 92492,'ARB150P2    ', 150.0000,1,  99, 905, 901,0.96732,   6.3480,1.10000,0.90000,1.10000,0.90000
 92500,'PAL150_B    ', 150.0000,1,  99, 906, 901,0.90000,   3.1451,1.10000,0.90000,1.10000,0.90000
 92510,'PIA150_B    ', 150.0000,1,  99, 906, 901,0.94941,   6.7349,1.10000,0.90000,1.10000,0.90000
 92520,'FLO150_B    ', 150.0000,1,  99, 906, 901,0.94281,   5.5722,1.10000,0.90000,1.10000,0.90000
 92524,'POL150_B    ', 150.0000,2,  99, 906, 904,0.94206,   5.8292,1.10000,0.90000,1.10000,0.90000
 92531,'DUR1501F    ', 150.0000,1,  99, 906, 901,0.95701,   6.6613,1.10000,0.90000,1.10000,0.90000
 92532,'DUR1502F    ', 150.0000,1,  99, 906, 901,0.96053,   7.1266,1.10000,0.90000,1.10000,0.90000
 92540,'BON150_B    ', 150.0000,2,  99, 906, 901,0.96883,   7.6584,1.10000,0.90000,1.10000,0.90000
 92550,'BAY150_B    ', 150.0000,2,  99, 906, 901,0.95303,   6.2761,1.10000,0.90000,1.10000,0.90000
 92561,'PBE150RX    ', 150.0000,1,  99, 906, 901,0.94374,   0.9860,1.10000,0.90000,1.10000,0.90000
 92562,'PBE150BX    ', 150.0000,1,  99, 906, 901,0.94271,   0.6353,1.10000,0.90000,1.10000,0.90000
 92580,'ROD150_B    ', 150.0000,1,  99, 906, 901,0.94855,   1.9258,1.10000,0.90000,1.10000,0.90000
 92590,'TRI150_B    ', 150.0000,2,  99, 906, 901,0.96445,   6.3274,1.10000,0.90000,1.10000,0.90000
 92600,'COL150_B    ', 150.0000,1,  99, 909, 901,0.94397,   1.0882,1.10000,0.90000,1.10000,0.90000
 92610,'ROS150_B    ', 150.0000,1,  99, 909, 901,0.94550,   1.8995,1.10000,0.90000,1.10000,0.90000
 92611,'MEN150_B    ', 150.0000,2,  99, 909, 904,0.94323,   2.1186,1.10000,0.90000,1.10000,0.90000
 92620,'LIB150_B    ', 150.0000,1,  99, 909, 901,0.93855,  -0.9235,1.10000,0.90000,1.10000,0.90000
 92630,'SVA150_B    ', 150.0000,1,  99, 909, 901,0.94088,  -0.7392,1.10000,0.90000,1.10000,0.90000
 92640,'MER150_B    ', 150.0000,1,  99, 909, 901,0.94676,   1.2205,1.10000,0.90000,1.10000,0.90000
 92650,'NPA150_B    ', 150.0000,1,  99, 909, 901,0.94288,   0.6001,1.10000,0.90000,1.10000,0.90000
 92660,'FBEMER_X    ', 150.0000,1,  99, 909, 901,0.94863,   1.0171,1.10000,0.90000,1.10000,0.90000
 92661,'FBESJA_X    ', 150.0000,1,  99, 909, 901,0.95072,   0.8623,1.10000,0.90000,1.10000,0.90000
 92670,'ACO150_B    ', 150.0000,1,  99, 906, 901,0.94257,   0.7661,1.10000,0.90000,1.10000,0.90000
 92681,'EFI150_X    ', 150.0000,1,  99, 909, 901,0.94005,  -0.7963,1.10000,0.90000,1.10000,0.90000
 92690,'CON150_B    ', 150.0000,1,  99, 909, 901,0.94434,   0.8260,1.10000,0.90000,1.10000,0.90000
 92692,'COE1502P    ', 150.0000,1,  99, 909, 901,0.94458,   0.8798,1.10000,0.90000,1.10000,0.90000
 92700,'SCA150_B    ', 150.0000,2,  99, 904, 901,0.93454,   2.5184,1.10000,0.90000,1.10000,0.90000
 92710,'BIF150_B    ', 150.0000,2,  99, 904, 901,0.93741,   0.7210,1.10000,0.90000,1.10000,0.90000
 92721,'PAZ1501B    ', 150.0000,1,  99, 904, 901,0.93537,   1.5741,1.10000,0.90000,1.10000,0.90000
 92722,'PAZ1502B    ', 150.0000,1,  99, 904, 901,0.93675,   1.2438,1.10000,0.90000,1.10000,0.90000
 92730,'MAL150_B    ', 150.0000,1,  99, 904, 901,0.93455,   1.8005,1.10000,0.90000,1.10000,0.90000
 92740,'CGR150_B    ', 150.0000,1,  99, 904, 901,0.93446,   1.7548,1.10000,0.90000,1.10000,0.90000
 92760,'ROC150_B    ', 150.0000,2,  99, 904, 901,0.94601,   7.1183,1.10000,0.90000,1.10000,0.90000
 92770,'PAN150_B    ', 150.0000,1,  99, 903, 901,0.94145,   0.0497,1.10000,0.90000,1.10000,0.90000
 92771,'PAN150_F    ', 150.0000,1,  99, 903, 901,0.94006,   0.3076,1.10000,0.90000,1.10000,0.90000
 92780,'PAZSCA_X    ', 150.0000,1,  99, 904, 901,0.93550,   2.2798,1.10000,0.90000,1.10000,0.90000
 92790,'BOB150_B    ', 150.0000,2,  99, 906, 901,0.96909,   7.6724,1.10000,0.90000,1.10000,0.90000
 92791,'SCAROC_X    ', 150.0000,1,  99, 904, 901,0.93526,   2.9987,1.10000,0.90000,1.10000,0.90000
 92801,'SCAMAL1X    ', 150.0000,1,  99, 904, 901,0.93464,   2.2728,1.10000,0.90000,1.10000,0.90000
 92810,'SCAMAL2X    ', 150.0000,1,  99, 904, 901,0.93474,   2.2587,1.10000,0.90000,1.10000,0.90000
 92830,'PAZMAL_X    ', 150.0000,1,  99, 904, 901,0.93557,   1.5790,1.10000,0.90000,1.10000,0.90000
 92910,'PIB150_B    ', 150.0000,2,  99, 906, 901,0.94938,   7.4649,1.10000,0.90000,1.10000,0.90000
 92940,'DOL150_B    ', 150.0000,1,  99, 906, 901,0.94490,   0.8141,1.10000,0.90000,1.10000,0.90000
0 / END OF BUS DATA, BEGIN LOAD DATA
@!   I,'ID',STAT,AREA,ZONE,      PL,        QL,        IP,        IQ,        YP,        YQ, OWNER,SCALE,INTRPT,  DGENP,     DGENQ, DGENF
   101,'1 ',   1,  99, 904,    15.859,    -0.554,     0.000,     0.000,     0.000,     0.000, 901,    1,  0,     0.000,     0.000,   0
  4000,'1 ',   1,   2,   4,     0.000,     0.000,     0.000,     0.000,     0.000,     0.000,  10,    1,  0,     0.000,     0.000,   0
 90200,'1 ',   1,  99, 902,    13.818,     2.857,     0.000,     0.000,     0.000,     0.000, 901,    1,  0,     0.000,     0.000,   0
 90500,'1 ',   1,  99, 902,     0.000,     0.000,     0.000,     0.000,     0.000,     0.000, 901,    1,  0,     0.000,     0.000,   0
 92020,'1 ',   1,  99, 906,     7.821,     0.000,     0.000,     0.000,     0.000,     0.000, 901,    1,  0,     0.000,     0.000,   0
 92030,'1 ',   1,  99, 908,     5.924,     3.865,     0.000,     0.000,     0.000,     0.000, 901,    1,  0,     0.000,     0.000,   0
 92040,'1 ',   1,  99, 908,    10.327,     1.068,     0.000,     0.000,     0.000,     0.000, 901,    1,  0,     0.000,     0.000,   0
 92050,'1 ',   1,  99, 909,     5.443,     0.681,     0.000,     0.000,     0.000,     0.000, 901,    1,  0,     0.000,     0.000,   0
 92060,'1 ',   1,  99, 908,     8.705,     0.000,     0.000,     0.000,     0.000,     0.000, 901,    1,  0,     0.000,     0.000,   0
 92070,'1 ',   1,  99, 908,     4.153,    -1.657,     0.000,     0.000,     0.000,     0.000, 901,    1,  0,     0.000,     0.000,   0
 92090,'1 ',   1,  99, 908,     4.663,    -0.960,     0.000,     0.000,     0.000,     0.000, 901,    1,  0,     0.000,     0.000,   0
 92100,'1 ',   1,  99, 903,    19.871,     2.688,     0.000,     0.000,     0.000,     0.000, 901,    1,  0,     0.000,     0.000,   0
 92110,'1 ',   1,  99, 903,    44.278,     7.560,     0.000,     0.000,     0.000,     0.000, 901,    1,  0,     0.000,     0.000,   0
 92180,'1 ',   1,  99, 903,    13.771,     1.714,     0.000,     0.000,     0.000,     0.000, 901,    1,  0,     0.000,     0.000,   0
 92210,'1 ',   1,  99, 903,     0.000,     0.000,     0.000,     0.000,     0.000,     0.000, 901,    1,  0,     0.000,     0.000,   0
 92240,'7 ',   1,  99, 903,    50.686,     9.215,     0.000,     0.000,     0.000,     0.000, 901,    1,  0,     0.000,     0.000,   0
 92270,'1 ',   1,  99, 903,    33.758,     6.215,     0.000,     0.000,     0.000,     0.000, 901,    1,  0,     0.000,     0.000,   0
 92280,'1 ',   1,  99, 903,     0.000,     0.000,     0.000,     0.000,     0.000,     0.000, 901,    1,  0,     0.000,     0.000,   0
 92310,'1 ',   1,  99, 903,    28.997,     4.453,     0.000,     0.000,     0.000,     0.000, 901,    1,  0,     0.000,     0.000,   0
 92320,'1 ',   1,  99, 903,     0.000,     0.000,     0.000,     0.000,     0.000,     0.000, 901,    1,  0,     0.000,     0.000,   0
 92330,'1 ',   1,  99, 903,    33.396,     3.886,     0.000,     0.000,     0.000,     0.000, 901,    1,  0,     0.000,     0.000,   0
 92340,'1 ',   1,  99, 903,    25.775,     1.905,     0.000,     0.000,     0.000,     0.000, 901,    1,  0,     0.000,     0.000,   0
 92350,'1 ',   1,  99, 903,    30.851,    -0.077,     0.000,     0.000,     0.000,     0.000, 901,    1,  0,     0.000,     0.000,   0
 92380,'1 ',   1,  99, 903,    10.944,     0.768,     0.000,     0.000,     0.000,     0.000, 901,    1,  0,     0.000,     0.000,   0
 92400,'1 ',   1,  99, 907,     8.681,     3.125,     0.000,     0.000,     0.000,     0.000, 901,    1,  0,     0.000,     0.000,   0
 92410,'1 ',   1,  99, 907,    19.299,     2.220,     0.000,     0.000,     0.000,     0.000, 901,    1,  0,     0.000,     0.000,   0
 92420,'1 ',   1,  99, 905,     5.131,    -0.185,     0.000,     0.000,     0.000,     0.000, 901,    1,  0,     0.000,     0.000,   0
 92430,'1 ',   1,  99, 905,     5.476,    -0.542,     0.000,     0.000,     0.000,     0.000, 901,    1,  0,     0.000,     0.000,   0
 92440,'1 ',   1,  99, 905,     0.000,     0.000,     0.000,     0.000,     0.000,     0.000, 901,    1,  0,     0.000,     0.000,   0
 92450,'1 ',   1,  99, 905,     1.509,     0.905,     0.000,     0.000,     0.000,     0.000, 901,    1,  0,     0.000,     0.000,   0
 92470,'1 ',   1,  99, 907,     0.184,    -0.008,     0.000,     0.000,     0.000,     0.000, 903,    0,  0,     0.000,     0.000,   0
 92520,'1 ',   1,  99, 906,    17.836,     2.652,     0.000,     0.000,     0.000,     0.000, 901,    1,  0,     0.000,     0.000,   0
 92531,'1 ',   1,  99, 906,    11.572,     1.942,     0.000,     0.000,     0.000,     0.000, 901,    1,  0,     0.000,     0.000,   0
 92540,'1 ',   1,  99, 906,     4.781,     0.000,     0.000,     0.000,     0.000,     0.000, 901,    1,  0,     0.000,     0.000,   0
 92580,'1 ',   1,  99, 906,     7.872,     1.728,     0.000,     0.000,     0.000,     0.000, 901,    1,  0,     0.000,     0.000,   0
 92590,'1 ',   1,  99, 906,     3.327,     0.000,     0.000,     0.000,     0.000,     0.000, 901,    1,  0,     0.000,     0.000,   0
 92600,'1 ',   1,  99, 909,    11.136,     1.920,     0.000,     0.000,     0.000,     0.000, 901,    1,  0,     0.000,     0.000,   0
 92610,'1 ',   1,  99, 909,     8.995,     0.816,     0.000,     0.000,     0.000,     0.000, 901,    1,  0,     0.000,     0.000,   0
 92620,'G1',   1,  99, 909,    15.946,     0.000,     0.000,     0.000,     0.000,     0.000, 901,    1,  0,     0.000,     0.000,   0
 92630,'1 ',   1,  99, 909,    13.545,     2.190,     0.000,     0.000,     0.000,     0.000, 901,    1,  0,     0.000,     0.000,   0
 92640,'1 ',   1,  99, 909,     6.048,     0.494,     0.000,     0.000,     0.000,     0.000, 901,    1,  0,     0.000,     0.000,   0
 92650,'1 ',   1,  99, 909,    10.109,     1.296,     0.000,     0.000,     0.000,     0.000, 901,    1,  0,     0.000,     0.000,   0
 92670,'1 ',   1,  99, 906,    16.148,     7.872,     0.000,     0.000,     0.000,     0.000, 903,    0,  0,     0.000,     0.000,   0
 92681,'1 ',   1,  99, 909,     6.548,     2.823,     0.000,     0.000,     0.000,     0.000, 901,    1,  0,     0.000,     0.000,   0
 92690,'1 ',   1,  99, 909,     0.872,     0.352,     0.000,     0.000,     0.000,     0.000, 901,    1,  0,     0.000,     0.000,   0
 92700,'1 ',   1,  99, 904,     7.477,    -0.443,     0.000,     0.000,     0.000,     0.000, 901,    1,  0,     0.000,     0.000,   0
 92710,'1 ',   1,  99, 904,     9.109,     3.428,     0.000,     0.000,     0.000,     0.000, 901,    1,  0,     0.000,     0.000,   0
 92721,'1 ',   1,  99, 904,     7.296,     0.576,     0.000,     0.000,     0.000,     0.000, 901,    1,  0,     0.000,     0.000,   0
 92730,'1 ',   1,  99, 904,    24.833,     1.893,     0.000,     0.000,     0.000,     0.000, 901,    1,  0,     0.000,     0.000,   0
 92760,'1 ',   1,  99, 904,     2.409,    -0.035,     0.000,     0.000,     0.000,     0.000, 901,    1,  0,     0.000,     0.000,   0
 92770,'1 ',   1,  99, 903,     0.000,     0.000,     0.000,     0.000,     0.000,     0.000, 901,    1,  0,     0.000,     0.000,   0
 92940,'1 ',   1,  99, 906,     3.657,     0.000,     0.000,     0.000,     0.000,     0.000, 901,    1,  0,     0.000,     0.000,   0
0 / END OF LOAD DATA, BEGIN FIXED SHUNT DATA
@!   I,'ID',STATUS,  GL,        BL
 90100,'1 ',1,     0.000,     3.308
 90160,'1 ',1,     0.000,     1.860
 90200,'1 ',1,     0.000,     2.352
 90300,'1 ',1,     0.000,     2.666
 90500,'1 ',1,     0.000,     5.561
 90700,'1 ',1,     0.000,     1.732
0 / END OF FIXED SHUNT DATA, BEGIN GENERATOR DATA
@!   I,'ID',      PG,        QG,        QT,        QB,     VS,    IREG,     MBASE,     ZR,         ZX,         RT,         XT,     GTAP,STAT, RMPCT,      PT,        PB,    O1,    F1,  O2,    F2,  O3,    F3,  O4,    F4,WMOD, WPF,NREG
 90000,'1 ',    80.000,   -29.000,   560.000,  -350.000,0.85849,  4000,   150.000, 0.00000E+0, 2.28000E-1, 0.00000E+0, 0.00000E+0,1.00000,1,   53.8,   945.000,     0.000, 901,1.0000
 90160,'1 ',     0.000,   -25.100,   182.100,  -182.100,0.92295, 90160,    63.500, 1.58000E-3, 2.11000E-1, 0.00000E+0, 0.00000E+0,1.00000,1,  100.0,   903.600,     0.000, 901,1.0000
 90500,'1 ',    30.000,    47.884,    48.000,   -30.000,0.90347, 90500,   111.000, 4.30000E-3, 2.10000E-1, 0.00000E+0, 0.00000E+0,1.00000,1,  100.0,   333.000,     0.000, 901,1.0000
 92000,'EN',    -0.370,   -33.374,     0.000,     0.000,1.00000, 92000,   100.000, 0.00000E+0, 1.00000E+0, 0.00000E+0, 0.00000E+0,1.00000,1,  100.0,    50.000,     0.000, 901,1.0000
 92020,'1 ',     0.000,     0.000,     0.000,     0.000,1.00000, 92020,   100.000, 0.00000E+0, 1.00000E+0, 0.00000E+0, 0.00000E+0,1.00000,1,  100.0,    29.500,     0.000, 901,1.0000
 92030,'1 ',     0.000,     0.000,     0.000,     0.000,1.00000, 92030,   100.000, 0.00000E+0, 1.00000E+0, 0.00000E+0, 0.00000E+0,1.00000,1,  100.0,    43.000,     0.000, 901,1.0000
 92040,'G1',    45.696,     0.000,     0.000,     0.000,0.87335, 92040,    50.000, 9.49400E-3, 2.12808E-1, 0.00000E+0, 0.00000E+0,1.00000,1,  100.0,    76.000,     0.000, 906,1.0000
 92050,'1 ',     0.000,     0.000,    10.000,   -10.000,1.00000, 92050,   100.000, 0.00000E+0, 1.00000E+0, 0.00000E+0, 0.00000E+0,1.00000,1,  100.0,    40.000,     0.000, 901,1.0000
 92060,'1 ',     0.000,     0.000,     0.000,     0.000,1.00000, 92060,   100.000, 0.00000E+0, 1.00000E+0, 0.00000E+0, 0.00000E+0,1.00000,1,  100.0,    10.000,     0.000, 901,1.0000
 92061,'1 ',     0.000,     0.000,    21.000,   -21.000,1.00000, 92061,   100.000, 0.00000E+0, 1.00000E+0, 0.00000E+0, 0.00000E+0,1.00000,1,  100.0,    70.000,     0.000, 901,1.0000
 92070,'1 ',     0.000,     0.000,     0.000,     0.000,1.00000, 92070,   100.000, 0.00000E+0, 1.00000E+0, 0.00000E+0, 0.00000E+0,1.00000,1,  100.0,    25.000,     0.000, 901,1.0000
 92091,'G1',    38.561,   -11.723,    20.160,   -20.160,0.94515, 92091,    68.000, 9.49400E-3, 2.12808E-1, 0.00000E+0, 0.00000E+0,1.00000,1,  100.0,    70.000,     0.000, 904,1.0000
 92124,'1 ',    -1.121,   -39.277,    80.000,   -80.000,0.92366, 92124,   142.750, 1.10000E-3, 1.47300E-1, 0.00000E+0, 0.00000E+0,1.00000,1,  100.0,   212.000,     0.000, 901,1.0000
 92240,'1 ',     0.000,     0.000,     8.000,    -8.000,0.92562, 92240,    13.137, 0.00000E+0, 2.59000E-1, 0.00000E+0, 0.00000E+0,1.00000,1,  100.0,    80.000,     0.000, 901,1.0000
 92400,'2 ',     5.158,     0.000,     6.000,    -5.000,0.95787, 92400,    15.000, 0.00000E+0, 2.10000E-1, 0.00000E+0, 0.00000E+0,1.00000,1,  100.0,    20.000,     0.000, 905,1.0000
 92410,'1 ',     0.000,     0.000,     3.000,    -3.000,1.00000, 92410,   100.000, 0.00000E+0, 1.00000E+0, 0.00000E+0, 0.00000E+0,1.00000,1,  100.0,    15.000,     0.000, 901,1.0000
 92411,'G1',    77.121,   -32.410,    42.480,   -42.480,0.96111, 92411,   140.000, 9.49400E-3, 2.12808E-1, 0.00000E+0, 0.00000E+0,1.00000,1,  100.0,   140.000,     0.000, 904,1.0000
 92420,'1 ',    70.000,   -48.191,    23.000,   -23.000,0.96786, 92420,   100.000, 0.00000E+0, 1.00000E+0, 0.00000E+0, 0.00000E+0,1.00000,1,  100.0,    73.600,     0.000, 901,1.0000
 92430,'1 ',     0.000,     0.000,     3.000,    -3.000,1.00000, 92430,   100.000, 0.00000E+0, 1.00000E+0, 0.00000E+0, 0.00000E+0,1.00000,1,  100.0,    14.000,     0.000, 901,1.0000
 92440,'1 ',     0.000,     0.000,     2.000,    -2.000,1.00000, 92440,   100.000, 0.00000E+0, 1.00000E+0, 0.00000E+0, 0.00000E+0,1.00000,1,  100.0,    10.000,     0.000, 901,1.0000
 92485,'G1',    27.543,   -12.344,    16.375,   -16.375,0.96217, 92485,    50.000, 9.49400E-3, 2.12808E-1, 0.00000E+0, 0.00000E+0,1.00000,1,  100.0,    50.000,     0.000, 904,1.0000
 92490,'G1',    27.543,   -12.248,    15.000,   -15.000,0.96664, 92490,    50.000, 9.49400E-3, 2.12808E-1, 0.00000E+0, 0.00000E+0,1.00000,1,  100.0,    50.000,     0.000, 904,1.0000
 92524,'1 ',    27.543,   -12.215,    30.000,   -30.000,0.94136, 92524,    50.000, 9.49400E-3, 2.12808E-1, 0.00000E+0, 0.00000E+0,1.00000,1,  100.0,   100.000,     0.000, 904,1.0000
 92540,'1 ',     0.000,     0.000,    52.000,   -48.000,0.94946, 92540,    40.000, 4.30000E-3, 2.12000E-1, 0.00000E+0, 0.00000E+0,1.00000,1,  100.0,   152.000,     0.000, 901,1.0000
 92550,'1 ',     0.000,    -0.150,    18.000,   -18.000,0.92340, 92550,    36.000, 4.40000E-3, 2.22000E-1, 0.00000E+0, 0.00000E+0,1.00000,1,  100.0,   108.000,     0.000, 901,1.0000
 92580,'1 ',     0.000,     0.000,     2.000,    -2.000,1.00000, 92580,   100.000, 0.00000E+0, 1.00000E+0, 0.00000E+0, 0.00000E+0,1.00000,1,  100.0,    20.000,     0.000, 901,1.0000
 92590,'1 ',    27.543,     4.061,    62.000,   -62.000,0.92033, 92590,    50.000, 9.49400E-3, 2.12808E-1, 0.00000E+0, 0.00000E+0,1.00000,1,  100.0,   219.000,     0.000, 904,1.0000
 92600,'1 ',     0.000,     0.000,    20.000,   -20.000,1.00000, 92600,   100.000, 0.00000E+0, 1.00000E+0, 0.00000E+0, 0.00000E+0,1.00000,1,  100.0,    80.000,     0.000, 901,1.0000
 92610,'1 ',     0.000,     0.000,     2.000,    -2.000,1.00000, 92610,   100.000, 0.00000E+0, 1.00000E+0, 0.00000E+0, 0.00000E+0,1.00000,1,  100.0,    18.000,     0.000, 901,1.0000
 92611,'G1',    35.861,   -19.385,    19.530,   -19.530,0.92888, 92611,    70.000, 9.49400E-3, 2.12808E-1, 0.00000E+0, 0.00000E+0,1.00000,1,  100.0,    65.100,     0.000, 904,1.0000
 92620,'1 ',     0.000,     0.000,     5.000,    -5.000,1.00000, 92620,   100.000, 0.00000E+0, 1.00000E+0, 0.00000E+0, 0.00000E+0,1.00000,1,  100.0,    27.200,     0.000, 901,1.0000
 92640,'1 ',     0.000,     0.000,     0.000,     0.000,1.00000, 92640,   100.000, 0.00000E+0, 1.00000E+0, 0.00000E+0, 0.00000E+0,1.00000,1,  100.0,     9.500,     0.000, 901,1.0000
 92700,'1 ',    27.543,   -12.650,    42.000,   -42.000,0.93133, 92700,    50.000, 9.49400E-3, 2.12808E-1, 0.00000E+0, 0.00000E+0,1.00000,1,  100.0,   120.000,     0.000, 904,1.0000
 92710,'G1',    42.000,    12.600,    12.600,   -12.600,0.92591, 92710,    42.000, 9.49400E-3, 2.12808E-1, 0.00000E+0, 0.00000E+0,1.00000,1,  100.0,    57.000,     0.000, 904,1.0000
 92760,'1 ',    27.543,    -4.307,    30.000,   -30.000,0.94723, 92760,    50.000, 9.49400E-3, 2.12808E-1, 0.00000E+0, 0.00000E+0,1.00000,1,  100.0,   108.000,     0.000, 904,1.0000
 92790,'1 ',    27.543,     0.888,    45.000,   -45.000,0.94957, 92790,    50.000, 9.49400E-3, 2.12808E-1, 0.00000E+0, 0.00000E+0,1.00000,1,  100.0,   150.000,     0.000, 904,1.0000
 92910,'1 ',     9.916,     0.000,    15.000,   -15.000,0.94874, 92910,    18.000, 9.49400E-3, 2.12808E-1, 0.00000E+0, 0.00000E+0,1.00000,1,  100.0,    88.000,     0.000, 904,1.0000
0 / END OF GENERATOR DATA, BEGIN BRANCH DATA
@!   I,     J,'CKT',     R,          X,         B,                    'N A M E'                 ,   RATE1,   RATE2,   RATE3,   RATE4,   RATE5,   RATE6,   RATE7,   RATE8,   RATE9,  RATE10,  RATE11,  RATE12,    GI,       BI,       GJ,       BJ,STAT,MET,  LEN,  O1,  F1,    O2,  F2,    O3,  F3,    O4,  F4
   101, 92740,'1 ', 6.64733E-04, 1.09200E-03,   0.03444,'                                        ',  112.00,  124.00, 9999.00,    0.00,    0.00,    0.00,    0.00,    0.00,    0.00,    0.00,    0.00,    0.00,  0.00000,  0.00000,  0.00000,  0.00000,1,1,   1.95, 901,1.0000
   101, 92740,'2 ', 6.64733E-04, 1.09200E-03,   0.03444,'                                        ',  112.00,  124.00, 9999.00,    0.00,    0.00,    0.00,    0.00,    0.00,    0.00,    0.00,    0.00,    0.00,  0.00000,  0.00000,  0.00000,  0.00000,1,1,   1.95, 901,1.0000
  4000,  4004,'1 ', 1.85000E-03, 1.72700E-02,   1.70530,'                                        ', 1039.00, 1039.00,    0.00,    0.00,    0.00,    0.00,    0.00,    0.00,    0.00,    0.00,    0.00,    0.00,  0.00000, -0.50000,  0.00000, -0.50000,1,1,   0.00,   1,1.0000
  4000, 90000,'1 ', 4.00000E-05, 4.10000E-04,   0.03890,'                                        ', 1039.00, 1039.00,    0.00,    0.00,    0.00,    0.00,    0.00,    0.00,    0.00,    0.00,    0.00,    0.00,  0.00000,  0.00000,  0.00000,  0.00000,1,2,   3.70,   1,1.0000
  4004, 90080,'1 ', 2.80000E-04, 2.59000E-03,   0.24680,'                                        ', 1039.00, 1039.00,    0.00,    0.00,    0.00,    0.00,    0.00,    0.00,    0.00,    0.00,    0.00,    0.00,  0.00000,  0.00000,  0.00000,  0.00000,1,1,  23.50,   1,1.0000
 90000, 90080,'1 ', 1.71000E-03, 1.60600E-02,   1.52925,'                                        ', 1039.00, 1039.00,    0.00,    0.00,    0.00,    0.00,    0.00,    0.00,    0.00,    0.00,    0.00,    0.00,  0.00197, -0.49020,  0.00188, -0.48847,1,1, 145.64, 901,1.0000
 90080, 90500,'1 ', 9.14684E-04, 8.56565E-03,   0.81585,'                                        ', 1877.00, 2078.00,    0.00,    0.00,    0.00,    0.00,    0.00,    0.00,    0.00,    0.00,    0.00,    0.00,  0.00197, -0.49020,  0.00000,  0.00000,1,1,  77.70, 901,1.0000
 90080, 90500,'2 ', 9.44114E-04, 8.84125E-03,   0.84210,'                                        ', 1039.23, 1039.23,    0.00,    0.00,    0.00,    0.00,    0.00,    0.00,    0.00,    0.00,    0.00,    0.00,  0.00188, -0.48847,  0.00000,  0.00000,1,1,  80.20, 901,1.0000
 90100, 90180,'1 ', 6.10000E-04, 6.16800E-03,   0.60848,'                                        ', 1396.00,    0.00,    0.00,    0.00,    0.00,    0.00,    0.00,    0.00,    0.00,    0.00,    0.00,    0.00,  0.00000,  0.00000,  0.00082, -0.35004,1,2,  57.10, 901,1.0000
 90100, 90200,'1 ', 1.16237E-04, 1.08851E-03,   0.10368,'                                        ', 1877.00, 2078.00,    0.00,    0.00,    0.00,    0.00,    0.00,    0.00,    0.00,    0.00,    0.00,    0.00,  0.00000,  0.00000,  0.00000,  0.00000,1,2,   9.87, 901,1.0000
 90100, 90300,'1 ', 2.01217E-04, 2.12880E-03,   0.20535,'                                        ', 1039.00, 1039.00,    0.00,    0.00,    0.00,    0.00,    0.00,    0.00,    0.00,    0.00,    0.00,    0.00,  0.00000,  0.00000,  0.00000,  0.00000,1,1,  19.40, 901,1.0000
 90160, 90200,'1 ', 2.10000E-04, 1.77000E-03,   0.16886,'                                        ', 1039.00, 1039.00,    0.00,    0.00,    0.00,    0.00,    0.00,    0.00,    0.00,    0.00,    0.00,    0.00,  0.00000,  0.00000,  0.00000,  0.00000,1,1,  16.08, 901,1.0000
 90160, 90500,'1 ', 2.71000E-03, 2.25200E-02,   2.14434,'                                        ', 1039.00, 1039.00,    0.00,    0.00,    0.00,    0.00,    0.00,    0.00,    0.00,    0.00,    0.00,    0.00,  0.00000, -1.00000,  0.00000, -0.50000,1,2, 204.22, 901,1.0000
 90180, 90500,'1 ', 1.83800E-03, 1.85700E-02,   1.83028,'                                        ', 1396.00, 1039.00,    0.00,    0.00,    0.00,    0.00,    0.00,    0.00,    0.00,    0.00,    0.00,    0.00,  0.00082, -0.35004,  0.00329, -0.99166,1,2, 171.80, 901,1.0000
 90300, 90700,'1 ', 1.28777E-03, 1.35943E-02,   1.31319,'                                        ', 1039.00, 1039.00,    0.00,    0.00,    0.00,    0.00,    0.00,    0.00,    0.00,    0.00,    0.00,    0.00,  0.00000,  0.00000,  0.00125, -0.51813,1,1, 123.90, 901,1.0000
 90480, 90700,'1 ', 2.72737E-03, 3.24941E-02,   2.83983,'                                        ', 1039.00, 1039.00,    0.00,    0.00,    0.00,    0.00,    0.00,    0.00,    0.00,    0.00,    0.00,    0.00,  0.00000, -1.00000,  0.00000, -1.00000,1,2, 282.90, 901,1.0000
 92000, 92040,'1 ', 7.13476E-03, 2.40366E-02,   0.00863,'                                        ',  129.00,  181.00,    0.00,    0.00,    0.00,    0.00,    0.00,    0.00,    0.00,    0.00,    0.00,    0.00,  0.00000,  0.00000,  0.00000,  0.00000,1,1,  13.40, 901,1.0000
 92000, 92061,'1 ', 2.03837E-02, 6.14290E-02,   0.02139,'                                        ',  128.00,  181.00, 9999.00,    0.00,    0.00,    0.00,    0.00,    0.00,    0.00,    0.00,    0.00,    0.00,  0.00000,  0.00000,  0.00000,  0.00000,1,2,  33.81, 901,1.0000
 92020, 92030,'1 ', 6.52820E-02, 1.08527E-01,   0.03809,'                                        ',   64.00,   64.00, 9999.00,    0.00,    0.00,    0.00,    0.00,    0.00,    0.00,    0.00,    0.00,    0.00,  0.00000,  0.00000,  0.00000,  0.00000,1,1,  60.10, 901,1.0000
 92020, 92030,'2 ', 6.52820E-02, 1.08527E-01,   0.03809,'                                        ',   85.00,  121.00, 9999.00,    0.00,    0.00,    0.00,    0.00,    0.00,    0.00,    0.00,    0.00,    0.00,  0.00000,  0.00000,  0.00000,  0.00000,1,1,  60.10, 901,1.0000
 92020, 92640,'1 ', 8.38963E-02, 1.42472E-01,   0.04775,'                                        ',   51.90,  121.00, 9999.00,    0.00,    0.00,    0.00,    0.00,    0.00,    0.00,    0.00,    0.00,    0.00,  0.00000,  0.00000,  0.00000,  0.00000,1,1,  77.30, 901,1.0000
 92020, 92790,'1 ', 1.24431E-01, 2.06864E-01,   0.07260,'                                        ',  103.00,  121.00,    0.00,    0.00,    0.00,    0.00,    0.00,    0.00,    0.00,    0.00,    0.00,    0.00,  0.00000,  0.00000,  0.00000,  0.00000,1,2, 144.60, 901,1.0000
 92020, 92790,'2 ', 1.24431E-01, 2.06864E-01,   0.07260,'                                        ',  103.00,  103.00,    0.00,    0.00,    0.00,    0.00,    0.00,    0.00,    0.00,    0.00,    0.00,    0.00,  0.00000,  0.00000,  0.00000,  0.00000,1,1, 114.60, 901,1.0000
 92030, 92040,'1 ', 5.60664E-02, 1.88885E-01,   0.06780,'                                        ',  124.00,  124.00,    0.00,    0.00,    0.00,    0.00,    0.00,    0.00,    0.00,    0.00,    0.00,    0.00,  0.00000,  0.00000,  0.00000,  0.00000,1,1, 105.30, 901,1.0000
 92050, 92660,'1 ', 6.23000E-03, 2.04600E-02,   0.00761,'                                        ',  125.00,  125.00, 9999.00,    0.00,    0.00,    0.00,    0.00,    0.00,    0.00,    0.00,    0.00,    0.00,  0.00000,  0.00000,  0.00000,  0.00000,1,1,  11.60, 901,1.0000
 92050, 92661,'1 ', 6.23000E-03, 2.04600E-02,   0.00761,'                                        ',  115.00,  115.00, 9999.00,    0.00,    0.00,    0.00,    0.00,    0.00,    0.00,    0.00,    0.00,    0.00,  0.00000,  0.00000,  0.00000,  0.00000,1,1,  11.60, 901,1.0000
 92060, 92061,'1 ', 1.50662E-02, 4.54040E-02,   0.01581,'                                        ',  128.00,  181.00,    0.00,    0.00,    0.00,    0.00,    0.00,    0.00,    0.00,    0.00,    0.00,    0.00,  0.00000,  0.00000,  0.00000,  0.00000,1,1,  24.99, 901,1.0000
 92060, 92070,'1 ', 3.30383E-02, 9.95655E-02,   0.03467,'                                        ',  128.00,  181.00,    0.00,    0.00,    0.00,    0.00,    0.00,    0.00,    0.00,    0.00,    0.00,    0.00,  0.00000,  0.00000,  0.00000,  0.00000,1,2,  54.80, 901,1.0000
 92070, 92091,'1 ', 4.60342E-02, 1.38730E-01,   0.04831,'                                        ',  128.00,  181.00,    0.00,    0.00,    0.00,    0.00,    0.00,    0.00,    0.00,    0.00,    0.00,    0.00,  0.00000,  0.00000,  0.00000,  0.00000,1,2,  76.36, 901,1.0000
 92080, 92661,'1 ', 3.74308E-02, 1.26727E-01,   0.04445,'                                        ',  114.00,  114.00, 9999.00,    0.00,    0.00,    0.00,    0.00,    0.00,    0.00,    0.00,    0.00,    0.00,  0.00000,  0.00000,  0.00000,  0.00000,1,1,  70.30, 901,1.0000
 92090, 92091,'1 ', 8.76842E-03, 2.64248E-02,   0.00920,'                                        ',  128.00,  181.00, 9999.00,    0.00,    0.00,    0.00,    0.00,    0.00,    0.00,    0.00,    0.00,    0.00,  0.00000,  0.00000,  0.00000,  0.00000,1,1,  14.54, 901,1.0000
 92090, 92400,'1 ', 8.47100E-02, 2.80920E-01,   0.11126,'                                        ',  158.00,  201.00,    0.00,    0.00,    0.00,    0.00,    0.00,    0.00,    0.00,    0.00,    0.00,    0.00,  0.00000,  0.00000,  0.00000,  0.00000,1,1, 165.00, 901,1.0000
 92100, 92110,'1 ', 2.69530E-03, 1.11098E-02,   0.00367,'                                        ',  140.00,  199.00,    0.00,    0.00,    0.00,    0.00,    0.00,    0.00,    0.00,    0.00,    0.00,    0.00,  0.00000,  0.00000,  0.00000,  0.00000,1,1,   5.80, 901,1.0000
 92100, 92110,'2 ', 2.69530E-03, 1.11098E-02,   0.00367,'                                        ',  140.00,  199.00,    0.00,    0.00,    0.00,    0.00,    0.00,    0.00,    0.00,    0.00,    0.00,    0.00,  0.00000,  0.00000,  0.00000,  0.00000,1,1,   5.80, 901,1.0000
 92100, 92131,'1 ', 7.99062E-03, 2.86673E-02,   0.00925,'                                        ',  158.00,  181.00,    0.00,    0.00,    0.00,    0.00,    0.00,    0.00,    0.00,    0.00,    0.00,    0.00,  0.00000,  0.00000,  0.00000,  0.00000,1,1,  14.80, 901,1.0000
 92100, 92132,'1 ', 7.99062E-03, 2.86673E-02,   0.00925,'                                        ',  158.00,  181.00,    0.00,    0.00,    0.00,    0.00,    0.00,    0.00,    0.00,    0.00,    0.00,    0.00,  0.00000,  0.00000,  0.00000,  0.00000,1,1,  14.80, 901,1.0000
 92100, 92141,'1 ', 1.25321E-03, 1.02050E-02,   0.00345,'                                        ',  187.00,  187.00,    0.00,    0.00,    0.00,    0.00,    0.00,    0.00,    0.00,    0.00,    0.00,    0.00,  0.00000,  0.00000,  0.00000,  0.00000,1,1,   5.40, 901,1.0000
 92100, 92180,'1 ', 2.73385E-03, 2.22621E-02,   0.00753,'                                        ',  206.00,  233.00,    0.00,    0.00,    0.00,    0.00,    0.00,    0.00,    0.00,    0.00,    0.00,    0.00,  0.00000,  0.00000,  0.00000,  0.00000,1,1,  11.78, 901,1.0000
 92100, 92180,'2 ', 2.73460E-03, 2.22682E-02,   0.00753,'                                        ',  206.00,  233.00,    0.00,    0.00,    0.00,    0.00,    0.00,    0.00,    0.00,    0.00,    0.00,    0.00,  0.00000,  0.00000,  0.00000,  0.00000,1,1,  11.78, 901,1.0000
 92100, 92200,'1 ', 2.27434E-03, 1.85203E-02,   0.00626,'                                        ',  206.00,  302.00,  332.60,    0.00,    0.00,    0.00,    0.00,    0.00,    0.00,    0.00,    0.00,    0.00,  0.00000,  0.00000,  0.00000,  0.00000,1,1,   9.80, 901,1.0000
 92100, 92710,'1 ', 5.46591E-02, 1.03109E-01,   0.03650,'                                        ',   85.00,  103.00, 9999.00,    0.00,    0.00,    0.00,    0.00,    0.00,    0.00,    0.00,    0.00,    0.00,  0.00000,  0.00000,  0.00000,  0.00000,1,1,  57.30, 901,1.0000
 92100, 92770,'1 ', 1.43498E-02, 4.32594E-02,   0.01504,'                                        ',   95.61,  124.71,    0.00,    0.00,    0.00,    0.00,    0.00,    0.00,    0.00,    0.00,    0.00,    0.00,  0.00000,  0.00000,  0.00000,  0.00000,1,1,  23.80, 901,1.0000
 92100, 92771,'2 ', 2.18636E-02, 4.12438E-02,   0.01460,'                                        ',   85.00,  103.00, 9999.00,    0.00,    0.00,    0.00,    0.00,    0.00,    0.00,    0.00,    0.00,    0.00,  0.00000,  0.00000,  0.00000,  0.00000,1,1,  22.92, 901,1.0000
 92111, 92240,'1 ', 1.15000E-03, 3.99000E-03,   0.09092,'                                        ',  171.00,  187.00,    0.00,    0.00,    0.00,    0.00,    0.00,    0.00,    0.00,    0.00,    0.00,    0.00,  0.00000,  0.00000,  0.00000,  0.00000,1,1,   6.50, 901,1.0000
 92111, 92360,'1 ', 1.66578E-03, 3.74256E-03,   0.05608,'                                        ',  122.00,  187.00,    0.00,    0.00,    0.00,    0.00,    0.00,    0.00,    0.00,    0.00,    0.00,    0.00,  0.00000,  0.00000,  0.00000,  0.00000,1,1,   6.05, 901,1.0000
 92124, 92141,'1 ', 1.36610E-03, 9.76794E-03,   0.00412,'                                        ',  144.97,  187.06,    0.00,    0.00,    0.00,    0.00,    0.00,    0.00,    0.00,    0.00,    0.00,    0.00,  0.00000,  0.00000,  0.00000,  0.00000,1,1,   5.90, 901,1.0000
 92124, 92142,'1 ', 1.36610E-03, 9.76794E-03,   0.00412,'                                        ',  144.97,  187.06,    0.00,    0.00,    0.00,    0.00,    0.00,    0.00,    0.00,    0.00,    0.00,    0.00,  0.00000,  0.00000,  0.00000,  0.00000,1,1,   5.90, 901,1.0000
 92124, 92360,'1 ', 2.61592E-03, 5.87727E-03,   0.08807,'                                        ',  122.00,  187.00,    0.00,    0.00,    0.00,    0.00,    0.00,    0.00,    0.00,    0.00,    0.00,    0.00,  0.00000,  0.00000,  0.00000,  0.00000,1,1,   9.50, 901,1.0000
 92131, 92520,'1 ', 3.81807E-02, 1.46950E-01,   0.03815,'                                        ',  158.00,  181.00,    0.00,    0.00,    0.00,    0.00,    0.00,    0.00,    0.00,    0.00,    0.00,    0.00,  0.00000,  0.00000,  0.00000,  0.00000,1,2,  63.90, 901,1.0000
 92132, 92520,'1 ', 3.81807E-02, 1.46950E-01,   0.03815,'                                        ',  158.00,  162.00,    0.00,    0.00,    0.00,    0.00,    0.00,    0.00,    0.00,    0.00,    0.00,    0.00,  0.00000,  0.00000,  0.00000,  0.00000,1,2,  63.90, 901,1.0000
 92142, 92200,'1 ', 1.04435E-03, 8.50410E-03,   0.00287,'                                        ',  187.00,  187.00,    0.00,    0.00,    0.00,    0.00,    0.00,    0.00,    0.00,    0.00,    0.00,    0.00,  0.00000,  0.00000,  0.00000,  0.00000,1,2,   4.50, 901,1.0000
 92180, 92300,'1 ', 1.49457E-03, 1.21705E-02,   0.00411,'                                        ',  187.00,  187.00,    0.00,    0.00,    0.00,    0.00,    0.00,    0.00,    0.00,    0.00,    0.00,    0.00,  0.00000,  0.00000,  0.00000,  0.00000,1,1,   6.44, 901,1.0000
 92180, 92300,'2 ', 1.49354E-03, 1.21621E-02,   0.00411,'                                        ',  187.00,  187.00,    0.00,    0.00,    0.00,    0.00,    0.00,    0.00,    0.00,    0.00,    0.00,    0.00,  0.00000,  0.00000,  0.00000,  0.00000,1,2,   6.44, 901,1.0000
 92180, 92380,'1 ', 6.10095E-03, 2.30696E-02,   0.00874,'                                        ',  140.00,  187.00,    0.00,    0.00,    0.00,    0.00,    0.00,    0.00,    0.00,    0.00,    0.00,    0.00,  0.00000,  0.00000,  0.00000,  0.00000,1,1,  13.19, 901,1.0000
 92200, 92210,'1 ', 3.62041E-03, 2.94809E-02,   0.00997,'                                        ',  206.00,  249.00,  249.00,    0.00,    0.00,    0.00,    0.00,    0.00,    0.00,    0.00,    0.00,    0.00,  0.00000,  0.00000,  0.00000,  0.00000,1,1,  15.60, 901,1.0000
 92200, 92210,'2 ', 3.62041E-03, 2.94809E-02,   0.00997,'                                        ',  206.00,  249.00,  249.00,    0.00,    0.00,    0.00,    0.00,    0.00,    0.00,    0.00,    0.00,    0.00,  0.00000,  0.00000,  0.00000,  0.00000,1,1,  15.60, 901,1.0000
 92200, 92280,'1 ', 4.18444E-03, 1.33778E-02,   0.00423,'                                        ',  124.00,  124.00,  125.00,    0.00,    0.00,    0.00,    0.00,    0.00,    0.00,    0.00,    0.00,    0.00,  0.00000,  0.00000,  0.00000,  0.00000,1,1,   7.00, 901,1.0000
 92200, 92562,'1 ', 1.34400E-02, 4.53900E-02,   0.01612,'                                        ',  159.00,  181.00, 9999.00,    0.00,    0.00,    0.00,    0.00,    0.00,    0.00,    0.00,    0.00,    0.00,  0.00000,  0.00000,  0.00000,  0.00000,1,1,  25.20, 901,1.0000
 92200, 92580,'2 ', 2.60260E-02, 8.78950E-02,   0.03122,'                                        ',  159.00,  181.00, 9999.00,    0.00,    0.00,    0.00,    0.00,    0.00,    0.00,    0.00,    0.00,    0.00,  0.00000,  0.00000,  0.00000,  0.00000,1,1,  48.80, 901,1.0000
 92210, 92220,'1 ', 5.56986E-04, 4.53552E-03,   0.00153,'                                        ',  134.00,  207.00,  207.85,    0.00,    0.00,    0.00,    0.00,    0.00,    0.00,    0.00,    0.00,    0.00,  0.00000,  0.00000,  0.00000,  0.00000,1,1,   2.40, 901,1.0000
 92210, 92230,'1 ', 5.56986E-04, 4.53552E-03,   0.00153,'                                        ',  134.00,  207.00,    0.00,    0.00,    0.00,    0.00,    0.00,    0.00,    0.00,    0.00,    0.00,    0.00,  0.00000,  0.00000,  0.00000,  0.00000,1,1,   2.40, 901,1.0000
 92210, 92630,'1 ', 1.21557E-02, 2.00953E-02,   0.00716,'                                        ',   85.00,  121.00,    0.00,    0.00,    0.00,    0.00,    0.00,    0.00,    0.00,    0.00,    0.00,    0.00,  0.00000,  0.00000,  0.00000,  0.00000,1,1,  11.20, 901,1.0000
 92210, 92630,'2 ', 1.21557E-02, 2.00953E-02,   0.00716,'                                        ',   85.00,  121.00,    0.00,    0.00,    0.00,    0.00,    0.00,    0.00,    0.00,    0.00,    0.00,    0.00,  0.00000,  0.00000,  0.00000,  0.00000,1,1,  11.20, 901,1.0000
 92220, 92240,'1 ', 1.21927E-03, 2.68888E-03,   0.10330,'                                        ',  108.00,  207.00,    0.00,    0.00,    0.00,    0.00,    0.00,    0.00,    0.00,    0.00,    0.00,    0.00,  0.00000,  0.00000,  0.00000,  0.00000,1,1,   5.22, 901,1.0000
 92230, 92240,'1 ', 1.21927E-03, 2.68888E-03,   0.10330,'                                        ',  108.00,  207.00,    0.00,    0.00,    0.00,    0.00,    0.00,    0.00,    0.00,    0.00,    0.00,    0.00,  0.00000,  0.00000,  0.00000,  0.00000,1,1,   5.22, 901,1.0000
 92240, 92270,'1 ', 1.07070E-03, 2.40488E-03,   0.03605,'                                        ',  135.00,  187.00,    0.00,    0.00,    0.00,    0.00,    0.00,    0.00,    0.00,    0.00,    0.00,    0.00,  0.00000,  0.00000,  0.00000,  0.00000,1,1,   3.89, 901,1.0000
 92240, 92270,'2 ', 7.30000E-04, 2.27000E-03,   0.04831,'                                        ',  135.00,  187.00,    0.00,    0.00,    0.00,    0.00,    0.00,    0.00,    0.00,    0.00,    0.00,    0.00,  0.00000,  0.00000,  0.00000,  0.00000,1,2,   3.70, 901,1.0000
 92240, 92310,'1 ', 1.45690E-03, 3.40683E-03,   0.11456,'                                        ',  108.00,  187.00,    0.00,    0.00,    0.00,    0.00,    0.00,    0.00,    0.00,    0.00,    0.00,    0.00,  0.00000,  0.00000,  0.00000,  0.00000,1,1,   6.23, 901,1.0000
 92240, 92350,'1 ', 8.91111E-04, 3.08222E-03,   0.07038,'                                        ',  171.00,  187.00,    0.00,    0.00,    0.00,    0.00,    0.00,    0.00,    0.00,    0.00,    0.00,    0.00,  0.00000,  0.00000,  0.00000,  0.00000,1,1,   5.10, 901,1.0000
 92270, 92320,'1 ', 7.20000E-04, 1.60565E-03,   0.02409,'                                        ',  135.00,  187.00,    0.00,    0.00,    0.00,    0.00,    0.00,    0.00,    0.00,    0.00,    0.00,    0.00,  0.00000,  0.00000,  0.00000,  0.00000,1,1,   2.60, 901,1.0000
 92300, 92310,'1 ', 1.69716E-03, 3.81305E-03,   0.05714,'                                        ',  135.00,  187.00,    0.00,    0.00,    0.00,    0.00,    0.00,    0.00,    0.00,    0.00,    0.00,    0.00,  0.00000,  0.00000,  0.00000,  0.00000,1,2,   6.17, 901,1.0000
 92300, 92330,'1 ', 5.93094E-04, 1.24031E-03,   0.05543,'                                        ',  108.00,  187.00,    0.00,    0.00,    0.00,    0.00,    0.00,    0.00,    0.00,    0.00,    0.00,    0.00,  0.00000,  0.00000,  0.00000,  0.00000,1,1,   2.54, 901,1.0000
 92300, 92330,'2 ', 5.93094E-04, 1.24031E-03,   0.05543,'                                        ',  108.00,  187.00,    0.00,    0.00,    0.00,    0.00,    0.00,    0.00,    0.00,    0.00,    0.00,    0.00,  0.00000,  0.00000,  0.00000,  0.00000,1,1,   2.54, 901,1.0000
 92300, 92340,'1 ', 2.12732E-03, 8.23022E-03,   0.00310,'                                        ',  140.00,  187.00,    0.00,    0.00,    0.00,    0.00,    0.00,    0.00,    0.00,    0.00,    0.00,    0.00,  0.00000,  0.00000,  0.00000,  0.00000,1,1,   4.70, 901,1.0000
 92300, 92350,'1 ', 8.84444E-04, 3.05689E-03,   0.06982,'                                        ',  171.00,  187.00,    0.00,    0.00,    0.00,    0.00,    0.00,    0.00,    0.00,    0.00,    0.00,    0.00,  0.00000,  0.00000,  0.00000,  0.00000,1,2,   5.30, 901,1.0000
 92310, 92320,'1 ', 9.07052E-04, 2.03795E-03,   0.03058,'                                        ',  135.00,  187.00,    0.00,    0.00,    0.00,    0.00,    0.00,    0.00,    0.00,    0.00,    0.00,    0.00,  0.00000,  0.00000,  0.00000,  0.00000,1,2,   3.30, 901,1.0000
 92310, 92330,'1 ', 7.62817E-04, 1.78377E-03,   0.05998,'                                        ',  108.00,  187.00,    0.00,    0.00,    0.00,    0.00,    0.00,    0.00,    0.00,    0.00,    0.00,    0.00,  0.00000,  0.00000,  0.00000,  0.00000,1,1,   3.26, 901,1.0000
 92320, 92350,'1 ', 1.04489E-03, 3.62356E-03,   0.08269,'                                        ',  171.00,  187.00,    0.00,    0.00,    0.00,    0.00,    0.00,    0.00,    0.00,    0.00,    0.00,    0.00,  0.00000,  0.00000,  0.00000,  0.00000,1,1,   6.50, 901,1.0000
 92400, 92460,'1 ', 4.23384E-02, 1.27608E-01,   0.04436,'                                        ',  125.00,  125.00,    0.00,    0.00,    0.00,    0.00,    0.00,    0.00,    0.00,    0.00,    0.00,    0.00,  0.00000,  0.00000,  0.00000,  0.00000,1,2,  70.20, 901,1.0000
 92410, 92412,'1 ', 7.60941E-03, 2.29347E-02,   0.00797,'                                        ',  158.00,  181.00,    0.00,    0.00,    0.00,    0.00,    0.00,    0.00,    0.00,    0.00,    0.00,    0.00,  0.00000,  0.00000,  0.00000,  0.00000,1,2,  12.62, 901,1.0000
 92410, 92460,'1 ', 2.22548E-02, 6.70760E-02,   0.02332,'                                        ',  124.00,  124.00, 9999.00,    0.00,    0.00,    0.00,    0.00,    0.00,    0.00,    0.00,    0.00,    0.00,  0.00000,  0.00000,  0.00000,  0.00000,1,1,  36.90, 901,1.0000
 92411, 92412,'1 ', 3.24401E-02, 9.77743E-02,   0.03400,'                                        ',  158.00,  181.00,    0.00,    0.00,    0.00,    0.00,    0.00,    0.00,    0.00,    0.00,    0.00,    0.00,  0.00000,  0.00000,  0.00000,  0.00000,1,1,  53.78, 901,1.0000
 92411, 92540,'1 ', 4.26973E-02, 1.28690E-01,   0.04474,'                                        ',  158.00,  181.00,    0.00,    0.00,    0.00,    0.00,    0.00,    0.00,    0.00,    0.00,    0.00,    0.00,  0.00000,  0.00000,  0.00000,  0.00000,1,2,  70.80, 901,1.0000
 92412, 92480,'1 ', 2.53200E-02, 2.68840E-01,   0.20161,'                                        ',  158.00,  181.00,    0.00,    0.00,    0.00,    0.00,    0.00,    0.00,    0.00,    0.00,    0.00,    0.00,  0.00000,  0.00000,  0.00000,  0.00000,1,1, 217.00, 901,1.0000
 92420, 92430,'1 ', 3.78011E-02, 1.13919E-01,   0.03967,'                                        ',  124.00,  124.00,    0.00,    0.00,    0.00,    0.00,    0.00,    0.00,    0.00,    0.00,    0.00,    0.00,  0.00000,  0.00000,  0.00000,  0.00000,1,1,  62.70, 901,1.0000
 92420, 92540,'1 ', 8.69366E-02, 2.61995E-01,   0.09123,'                                        ',  128.00,  181.00,    0.00,    0.00,    0.00,    0.00,    0.00,    0.00,    0.00,    0.00,    0.00,    0.00,  0.00000,  0.00000,  0.00000,  0.00000,1,2, 144.20, 901,1.0000
 92430, 92440,'1 ', 6.66328E-02, 1.12750E-01,   0.04255,'                                        ',   62.00,   62.00, 9999.00,    0.00,    0.00,    0.00,    0.00,    0.00,    0.00,    0.00,    0.00,    0.00,  0.00000,  0.00000,  0.00000,  0.00000,1,1,  64.50, 901,1.0000
 92430, 92450,'1 ', 6.31828E-02, 1.90410E-01,   0.06630,'                                        ',   31.18,   31.18,    0.00,    0.00,    0.00,    0.00,    0.00,    0.00,    0.00,    0.00,    0.00,    0.00,  0.00000,  0.00000,  0.00000,  0.00000,1,1, 104.80, 901,1.0000
 92430, 92491,'1 ', 4.53270E-02, 1.36599E-01,   0.04756,'                                        ',  124.00,  124.00,    0.00,    0.00,    0.00,    0.00,    0.00,    0.00,    0.00,    0.00,    0.00,    0.00,  0.00000,  0.00000,  0.00000,  0.00000,1,2,  75.18, 901,1.0000
 92450, 92482,'1 ', 3.61800E-03, 1.09020E-02,   0.00380,'                                        ',   95.60,  160.00,  134.10,    0.00,    0.00,    0.00,    0.00,    0.00,    0.00,    0.00,    0.00,    0.00,  0.00000,  0.00000,  0.00000,  0.00000,1,2,   6.00, 901,1.0000
 92460, 92470,'1 ', 2.32711E-02, 3.20522E-02,   0.01092,'                                        ',   15.00,   15.00,    0.00,    0.00,    0.00,    0.00,    0.00,    0.00,    0.00,    0.00,    0.00,    0.00,  0.00000,  0.00000,  0.00000,  0.00000,1,1,  17.50, 901,1.0000
 92480, 92481,'1 ', 1.84000E-03, 7.45000E-03,   0.00246,'                                        ',  129.00,  181.00,    0.00,    0.00,    0.00,    0.00,    0.00,    0.00,    0.00,    0.00,    0.00,    0.00,  0.00000,  0.00000,  0.00000,  0.00000,1,1,   4.00, 901,1.0000
 92480, 92482,'1 ', 1.84000E-03, 7.45000E-03,   0.00246,'                                        ',  136.00,    0.00,    0.00,    0.00,    0.00,    0.00,    0.00,    0.00,    0.00,    0.00,    0.00,    0.00,  0.00000,  0.00000,  0.00000,  0.00000,1,1,   4.00, 901,1.0000
 92480, 92485,'1 ', 1.23300E-02, 4.99100E-02,   0.01650,'                                        ',  136.00,    0.00,    0.00,    0.00,    0.00,    0.00,    0.00,    0.00,    0.00,    0.00,    0.00,    0.00,  0.00000,  0.00000,  0.00000,  0.00000,1,1,  26.80, 901,1.0000
 92481, 92492,'1 ', 1.42350E-02, 4.29000E-02,   0.01494,'                                        ',  128.00,  181.00, 9999.00,    0.00,    0.00,    0.00,    0.00,    0.00,    0.00,    0.00,    0.00,    0.00,  0.00000,  0.00000,  0.00000,  0.00000,1,1,  23.61, 901,1.0000
 92490, 92491,'1 ', 9.20000E-04, 3.72000E-03,   0.00123,'                                        ',  125.00,  125.00,    0.00,    0.00,    0.00,    0.00,    0.00,    0.00,    0.00,    0.00,    0.00,    0.00,  0.00000,  0.00000,  0.00000,  0.00000,1,1,   2.00, 901,1.0000
 92490, 92492,'1 ', 9.20000E-04, 3.72000E-03,   0.00123,'                                        ',  129.00,  181.00, 9999.00,    0.00,    0.00,    0.00,    0.00,    0.00,    0.00,    0.00,    0.00,    0.00,  0.00000,  0.00000,  0.00000,  0.00000,1,2,   2.00, 901,1.0000
 92500, 92550,'1 ', 4.79431E-02, 1.61915E-01,   0.05753,'                                        ',  159.00,  162.00,    0.00,    0.00,    0.00,    0.00,    0.00,    0.00,    0.00,    0.00,    0.00,    0.00,  0.00000,  0.00000,  0.00000,  0.00000,1,1,  89.90, 901,1.0000
 92500, 92590,'1 ', 4.98629E-02, 1.68399E-01,   0.05983,'                                        ',  159.00,  162.00,    0.00,    0.00,    0.00,    0.00,    0.00,    0.00,    0.00,    0.00,    0.00,    0.00,  0.00000,  0.00000,  0.00000,  0.00000,1,1,  93.50, 901,1.0000
 92510, 92520,'1 ', 1.73570E-02, 6.68050E-02,   0.01735,'                                        ',  158.00,  181.00,    0.00,    0.00,    0.00,    0.00,    0.00,    0.00,    0.00,    0.00,    0.00,    0.00,  0.00000,  0.00000,  0.00000,  0.00000,1,1,  29.05, 901,1.0000
 92510, 92520,'2 ', 1.73570E-02, 6.68040E-02,   0.01735,'                                        ',  158.00,  181.00,    0.00,    0.00,    0.00,    0.00,    0.00,    0.00,    0.00,    0.00,    0.00,    0.00,  0.00000,  0.00000,  0.00000,  0.00000,1,1,  29.05, 901,1.0000
 92510, 92531,'1 ', 3.22330E-02, 1.24065E-01,   0.03221,'                                        ',  158.00,  181.00, 9999.00,    0.00,    0.00,    0.00,    0.00,    0.00,    0.00,    0.00,    0.00,    0.00,  0.00000,  0.00000,  0.00000,  0.00000,1,2,  53.95, 901,1.0000
 92510, 92532,'1 ', 3.22330E-02, 1.24065E-01,   0.03221,'                                        ',  158.00,  181.00, 9999.00,    0.00,    0.00,    0.00,    0.00,    0.00,    0.00,    0.00,    0.00,    0.00,  0.00000,  0.00000,  0.00000,  0.00000,1,1,  53.95, 901,1.0000
 92510, 92910,'1 ', 5.52000E-03, 2.23500E-02,   0.00739,'                                        ',  158.00,  201.00,    0.00,    0.00,    0.00,    0.00,    0.00,    0.00,    0.00,    0.00,    0.00,    0.00,  0.00000,  0.00000,  0.00000,  0.00000,1,1,  12.00, 901,1.0000
 92520, 92524,'1 ', 1.61000E-03, 6.52000E-03,   0.00215,'                                        ',  136.00,    0.00,    0.00,    0.00,    0.00,    0.00,    0.00,    0.00,    0.00,    0.00,    0.00,    0.00,  0.00000,  0.00000,  0.00000,  0.00000,1,1,   3.50, 901,1.0000
 92531, 92540,'1 ', 3.82404E-02, 1.47180E-01,   0.03821,'                                        ',  158.00,  181.00,    0.00,    0.00,    0.00,    0.00,    0.00,    0.00,    0.00,    0.00,    0.00,    0.00,  0.00000,  0.00000,  0.00000,  0.00000,1,2,  64.00, 901,1.0000
 92532, 92540,'1 ', 3.82404E-02, 1.47180E-01,   0.03821,'                                        ',  158.00,  181.00,    0.00,    0.00,    0.00,    0.00,    0.00,    0.00,    0.00,    0.00,    0.00,    0.00,  0.00000,  0.00000,  0.00000,  0.00000,1,2,  64.00, 901,1.0000
 92540, 92550,'1 ', 2.32536E-02, 7.35815E-02,   0.02375,'                                        ',  155.00,  155.00,    0.00,    0.00,    0.00,    0.00,    0.00,    0.00,    0.00,    0.00,    0.00,    0.00,  0.00000,  0.00000,  0.00000,  0.00000,1,1,  38.90, 901,1.0000
 92540, 92790,'1 ', 4.60000E-04, 1.86000E-03,   0.00062,'                                        ',  233.00,  233.00,    0.00,    0.00,    0.00,    0.00,    0.00,    0.00,    0.00,    0.00,    0.00,    0.00,  0.00000,  0.00000,  0.00000,  0.00000,1,2,   1.00, 901,1.0000
 92540, 92790,'2 ', 4.60000E-04, 1.86000E-03,   0.00062,'                                        ',  233.00,  233.00,    0.00,    0.00,    0.00,    0.00,    0.00,    0.00,    0.00,    0.00,    0.00,    0.00,  0.00000,  0.00000,  0.00000,  0.00000,1,2,   1.00, 901,1.0000
 92550, 92590,'1 ', 5.46100E-02, 1.84430E-01,   0.06553,'                                        ',  159.00,  181.00,    0.00,    0.00,    0.00,    0.00,    0.00,    0.00,    0.00,    0.00,    0.00,    0.00,  0.00000,  0.00000,  0.00000,  0.00000,1,1, 102.40, 901,1.0000
 92561, 92580,'1 ', 1.25857E-02, 4.25051E-02,   0.01510,'                                        ',  159.00,  181.00, 9999.00,    0.00,    0.00,    0.00,    0.00,    0.00,    0.00,    0.00,    0.00,    0.00,  0.00000,  0.00000,  0.00000,  0.00000,1,1,  23.60, 901,1.0000
 92561, 92670,'1 ', 2.93284E-03, 9.95727E-03,   0.00376,'                                        ',  140.00,  187.00, 9999.00,    0.00,    0.00,    0.00,    0.00,    0.00,    0.00,    0.00,    0.00,    0.00,  0.00000,  0.00000,  0.00000,  0.00000,1,1,   5.70, 901,1.0000
 92562, 92670,'1 ', 2.93284E-03, 9.95727E-03,   0.00376,'                                        ',  140.00,  187.00, 9999.00,    0.00,    0.00,    0.00,    0.00,    0.00,    0.00,    0.00,    0.00,    0.00,  0.00000,  0.00000,  0.00000,  0.00000,1,1,   5.70, 901,1.0000
 92580, 92590,'1 ', 5.22600E-02, 1.76500E-01,   0.06271,'                                        ',  159.00,  181.00, 9999.00,    0.00,    0.00,    0.00,    0.00,    0.00,    0.00,    0.00,    0.00,    0.00,  0.00000,  0.00000,  0.00000,  0.00000,1,2,  98.00, 901,1.0000
 92580, 92590,'2 ', 5.22627E-02, 1.76504E-01,   0.06271,'                                        ',  159.00,  181.00, 9999.00,    0.00,    0.00,    0.00,    0.00,    0.00,    0.00,    0.00,    0.00,    0.00,  0.00000,  0.00000,  0.00000,  0.00000,1,2,  98.00, 901,1.0000
 92580, 92610,'1 ', 3.79893E-02, 1.25993E-01,   0.04990,'                                        ',  124.00,  124.00,    0.00,    0.00,    0.00,    0.00,    0.00,    0.00,    0.00,    0.00,    0.00,    0.00,  0.00000,  0.00000,  0.00000,  0.00000,1,1,  74.00, 901,1.0000
 92580, 92610,'2 ', 3.79893E-02, 1.25993E-01,   0.04990,'                                        ',   90.00,   90.00,    0.00,    0.00,    0.00,    0.00,    0.00,    0.00,    0.00,    0.00,    0.00,    0.00,  0.00000,  0.00000,  0.00000,  0.00000,1,2,  74.00, 901,1.0000
 92600, 92611,'1 ', 1.53060E-02, 5.05440E-02,   0.01852,'                                        ',  124.00,  124.00, 9999.00,    0.00,    0.00,    0.00,    0.00,    0.00,    0.00,    0.00,    0.00,    0.00,  0.00000,  0.00000,  0.00000,  0.00000,1,1,  28.52, 901,1.0000
 92600, 92620,'1 ', 1.32943E-01, 2.19278E-01,   0.07785,'                                        ',   85.00,  103.00,    0.00,    0.00,    0.00,    0.00,    0.00,    0.00,    0.00,    0.00,    0.00,    0.00,  0.00000,  0.00000,  0.00000,  0.00000,1,2, 122.50, 901,1.0000
 92600, 92692,'1 ', 1.29540E-02, 4.89800E-02,   0.01856,'                                        ',  140.00,  155.00, 9999.00,    0.00,    0.00,    0.00,    0.00,    0.00,    0.00,    0.00,    0.00,    0.00,  0.00000,  0.00000,  0.00000,  0.00000,1,1,  28.00, 901,1.0000
 92610, 92611,'1 ', 1.07240E-02, 3.54160E-02,   0.01297,'                                        ',  128.00,  181.00, 9999.00,    0.00,    0.00,    0.00,    0.00,    0.00,    0.00,    0.00,    0.00,    0.00,  0.00000,  0.00000,  0.00000,  0.00000,1,1,  19.98, 901,1.0000
...